examples/Ren/ren.raw
0,   100.00, 33, 0, 1, 50.00     / PSS(R)E-33.5    THU, OCT 22 2015  14:37
REN

 11015,'CARTELLE    ', 400.0000,1,   1,  99, 111,1.06254, -27.4900,1.10000,0.90000,1.10000,0.90000
 11016,'CARTELLE    ', 400.0000,1,   1,  99, 111,1.06253, -27.4831,1.10000,0.90000,1.10000,0.90000
 14030,'CEDILLO     ', 400.0000,1,   1,  99, 116,1.04053, -39.8077,1.10000,0.90000,1.10000,0.90000
 15013,'BROVALES    ', 400.0000,1,   1,  99, 111,1.03828, -40.5446,1.10000,0.90000,1.10000,0.90000
 22010,'ALDEADAV    ', 220.0000,1,   1,  99, 134,1.08231, -37.5104,1.10000,0.90000,1.10000,0.90000
 22011,'ALDEADAV    ', 220.0000,1,   1,  99, 134,1.06655, -35.8956,1.10000,0.90000,1.10000,0.90000
 22195,'SAUCELLE    ', 220.0000,1,   1,  99, 112,1.07493, -37.4767,1.10000,0.90000,1.10000,0.90000
 70101,'ZEZERE      ', 150.0000,1,   6,   7,   2,1.02610, -41.5895,1.10000,0.90000,1.10000,0.90000
 70103,'ERMESIN     ', 150.0000,1,   6,   4,   2,1.03834, -38.8665,1.10000,0.90000,1.10000,0.90000
 70104,'SETUBAL     ', 150.0000,1,   6,  11,   2,1.02283, -39.8773,1.10000,0.90000,1.10000,0.90000
 70105,'F.ALENT     ', 150.0000,1,   6,  12,   2,1.02037, -38.2494,1.10000,0.90000,1.10000,0.90000
 70108,'VERMOIM     ', 150.0000,1,   6,   4,   2,1.04016, -38.8191,1.10000,0.90000,1.10000,0.90000
 70109,'P.ALTO      ', 150.0000,1,   6,  11,   2,1.01922, -40.3883,1.10000,0.90000,1.10000,0.90000
 70113,'TUNES       ', 150.0000,1,   6,  13,   2,1.00657, -42.8331,1.10000,0.90000,1.10000,0.90000
 70115,'F.FERRO     ', 150.0000,1,   6,  11,   2,1.02033, -40.8576,1.10000,0.90000,1.10000,0.90000
 70117,'PALMELA     ', 150.0000,1,   6,  11,   2,1.02282, -39.7043,1.10000,0.90000,1.10000,0.90000
 70119,'SINES       ', 150.0000,1,   6,  12,   2,1.03459, -35.3184,1.10000,0.90000,1.10000,0.90000
 70120,'VALDIGE     ', 150.0000,1,   6,   2,   2,1.03700, -35.7782,1.10000,0.90000,1.10000,0.90000
 70122,'RIBADAV     ', 150.0000,1,   6,   1,   2,1.03841, -37.7890,1.10000,0.90000,1.10000,0.90000
 70127,'GUIMARA     ', 150.0000,1,   6,   1,   2,1.03670, -37.9219,1.10000,0.90000,1.10000,0.90000
 70131,'V.FRIA      ', 150.0000,1,   6,   1,   2,1.03483, -38.8438,1.10000,0.90000,1.10000,0.90000
 70139,'EVORA       ', 150.0000,1,   6,  12,   2,1.02822, -40.9225,1.10000,0.90000,1.10000,0.90000
 70140,'TRAFARIA    ', 150.0000,1,   6,  11,   2,1.01853, -41.1066,1.10000,0.90000,1.10000,0.90000
 70141,'FAFE        ', 150.0000,1,   6,   1,   2,1.04060, -37.8125,1.10000,0.90000,1.10000,0.90000
 70150,'OURIQUE     ', 150.0000,1,   6,  12,   2,1.01585, -39.6893,1.10000,0.90000,1.10000,0.90000
 70155,'CHAVES      ', 150.0000,1,   6,   1,   2,1.02380, -36.9435,1.10000,0.90000,1.10000,0.90000
 70156,'ESTOI       ', 150.0000,1,   6,  13,   2,0.99400, -43.6947,1.10000,0.90000,1.10000,0.90000
 70157,'FALAGUE     ', 150.0000,1,   6,  14,   2,1.02133, -46.2547,1.10000,0.90000,1.10000,0.90000
 70161,'OLEIROS     ', 150.0000,1,   6,   1,   2,1.03534, -38.4495,1.10000,0.90000,1.10000,0.90000
 70163,'RUIVAES     ', 150.0000,1,   6,   1,   2,1.03476, -38.1139,1.10000,0.90000,1.10000,0.90000
 70171,'ERMIDAS     ', 150.0000,1,   6,  12,   2,1.02675, -36.9650,1.10000,0.90000,1.10000,0.90000
 70172,'M.PEDRA     ', 150.0000,1,   6,  12,   2,1.02845, -37.8164,1.10000,0.90000,1.10000,0.90000
 70173,'SABOIA      ', 150.0000,1,   6,  12,   2,1.01737, -39.7349,1.10000,0.90000,1.10000,0.90000
 70177,'PORTIMAO    ', 150.0000,1,   6,  13,   2,1.00828, -42.2321,1.10000,0.90000,1.10000,0.90000
 70180,'CANICAD     ', 150.0000,1,   6,   1,   2,1.04000, -37.0400,1.10000,0.90000,1.10000,0.90000
 70181,'C.BRANCO    ', 150.0000,1,   6,   7,   2,1.01710, -45.3289,1.10000,0.90000,1.10000,0.90000
 70182,'PEDRALVA    ', 150.0000,1,   6,   1,   2,1.03785, -37.6239,1.10000,0.90000,1.10000,0.90000
 70183,'FRADES      ', 150.0000,1,   6,   1,   2,1.04368, -36.4351,1.10000,0.90000,1.10000,0.90000
 70192,'ESTREMOZ    ', 150.0000,1,   6,  12,   2,1.01964, -47.9536,1.10000,0.90000,1.10000,0.90000
 70201,'ZEZERE      ', 220.0000,1,   6,   7,   2,1.04829, -41.9950,1.10000,0.90000,1.10000,0.90000
 70202,'SACAVEM     ', 220.0000,1,   6,  10,   2,1.03898, -41.7047,1.10000,0.90000,1.10000,0.90000
 70203,'ERMESIND    ', 220.0000,4,   6,   4,   2,1.00000,   0.0000,1.10000,0.90000,1.10000,0.90000
 70206,'PEREIRO     ', 220.0000,1,   6,   6,   2,1.04395, -41.9232,1.10000,0.90000,1.10000,0.90000
 70207,'POCINHO     ', 220.0000,1,   6,   3,   2,1.06096, -38.3759,1.10000,0.90000,1.10000,0.90000
 70208,'VERMOIM     ', 220.0000,1,   6,   4,   2,1.03303, -39.2300,1.10000,0.90000,1.10000,0.90000
 70210,'V.CHA       ', 220.0000,1,   6,   5,   2,1.04578, -42.1420,1.10000,0.90000,1.10000,0.90000
 70211,'A.MIRA      ', 220.0000,1,   6,  10,   2,1.03679, -41.8064,1.10000,0.90000,1.10000,0.90000
 70212,'ESTARRE     ', 220.0000,1,   6,   4,   2,1.03333, -40.9083,1.10000,0.90000,1.10000,0.90000
 70214,'BATALHA     ', 220.0000,1,   6,   8,   2,1.04309, -41.1398,1.10000,0.90000,1.10000,0.90000
 70216,'R.MAIOR     ', 220.0000,1,   6,   9,   2,1.04011, -40.6413,1.10000,0.90000,1.10000,0.90000
 70218,'CARREGA     ', 220.0000,1,   6,  10,   2,1.04000, -40.9989,1.10000,0.90000,1.10000,0.90000
 70220,'VALDIGE     ', 220.0000,1,   6,   2,   2,1.04438, -38.3591,1.10000,0.90000,1.10000,0.90000
 70223,'MOURISC     ', 220.0000,1,   6,   6,   2,1.03861, -41.3235,1.10000,0.90000,1.10000,0.90000
 70224,'CANELAS     ', 220.0000,1,   6,   4,   2,1.03958, -38.5714,1.10000,0.90000,1.10000,0.90000
 70225,'FANHOES     ', 220.0000,1,   6,  10,   2,1.03994, -41.5538,1.10000,0.90000,1.10000,0.90000
 70226,'ARMAMAR     ', 220.0000,1,   6,   2,   2,1.04501, -38.5491,1.10000,0.90000,1.10000,0.90000
 70228,'MOGOFOR     ', 220.0000,1,   6,   6,   2,1.04375, -40.6028,1.10000,0.90000,1.10000,0.90000
 70230,'POMBAL      ', 220.0000,1,   6,   8,   2,1.04482, -41.0990,1.10000,0.90000,1.10000,0.90000
 70232,'CUSTOIA     ', 220.0000,1,   6,   4,   2,1.03271, -39.4106,1.10000,0.90000,1.10000,0.90000
 70233,'PICOTE      ', 220.0000,1,   6,   3,   2,1.05485, -35.7476,1.10000,0.90000,1.10000,0.90000
 70234,'CARRICH     ', 220.0000,1,   6,  10,   2,1.03744, -41.9988,1.10000,0.90000,1.10000,0.90000
 70235,'TRAJOUC     ', 220.0000,1,   6,  10,   2,1.03585, -42.4271,1.10000,0.90000,1.10000,0.90000
 70237,'RECAREI     ', 220.0000,1,   6,   4,   2,1.03967, -38.3310,1.10000,0.90000,1.10000,0.90000
 70238,'S.RIOS      ', 220.0000,1,   6,  10,   2,1.03664, -42.0775,1.10000,0.90000,1.10000,0.90000
 70242,'A.S.JOAO    ', 220.0000,4,   6,  10,   2,1.00000,   0.0000,1.10000,0.90000,1.10000,0.90000
 70246,'TORRAO      ', 220.0000,1,   6,   4,   2,1.03816, -39.2273,1.10000,0.90000,1.10000,0.90000
 70254,'REGUA       ', 220.0000,1,   6,   2,   2,1.04500, -38.3108,1.10000,0.90000,1.10000,0.90000
 70262,'FERRO       ', 220.0000,1,   6,   5,   2,1.03790, -42.9273,1.10000,0.90000,1.10000,0.90000
 70264,'MOGADOU     ', 220.0000,1,   6,   3,   2,1.05246, -36.3110,1.10000,0.90000,1.10000,0.90000
 70265,'SANTARE     ', 220.0000,1,   6,   9,   2,1.04229, -41.7065,1.10000,0.90000,1.10000,0.90000
 70266,'CHAFARI     ', 220.0000,1,   6,   5,   2,1.04889, -41.4970,1.10000,0.90000,1.10000,0.90000
 70268,'CARRAPA     ', 220.0000,1,   6,   4,   2,1.04000, -39.4496,1.10000,0.90000,1.10000,0.90000
 70269,'URRO        ', 220.0000,1,   6,   2,   2,1.03980, -38.3480,1.10000,0.90000,1.10000,0.90000
 70270,'PRELADA     ', 220.0000,4,   6,   4,   2,1.00000,   0.0000,1.10000,0.90000,1.10000,0.90000
 70276,'PARAIMO     ', 220.0000,1,   6,   6,   2,1.04342, -40.4290,1.10000,0.90000,1.10000,0.90000
 70278,'BODIOSA     ', 220.0000,1,   6,   5,   2,1.04362, -40.0897,1.10000,0.90000,1.10000,0.90000
 70279,'PENELA      ', 220.0000,1,   6,   6,   2,1.04542, -42.0011,1.10000,0.90000,1.10000,0.90000
 70281,'C.BRANCO    ', 220.0000,1,   6,   7,   2,1.02416, -43.7127,1.10000,0.90000,1.10000,0.90000
 70285,'M.CAVALE    ', 220.0000,1,   6,   3,   2,1.06239, -35.7581,1.10000,0.90000,1.10000,0.90000
 70286,'CARVOEIR    ', 220.0000,1,   6,  10,   2,1.03749, -41.7229,1.10000,0.90000,1.10000,0.90000
 70287,'V.P.AGUI    ', 220.0000,1,   6,   2,   2,1.04419, -38.3000,1.10000,0.90000,1.10000,0.90000
 70288,'ZAMBUJAL    ', 220.0000,4,   6,  10,   2,1.00000,   0.0000,1.10000,0.90000,1.10000,0.90000
 70289,'LAGOACA     ', 220.0000,1,   6,   3,   2,1.05898, -35.6693,1.10000,0.90000,1.10000,0.90000
 70291,'TÁBUA       ', 220.0000,1,   6,   6,   2,1.04184, -42.0307,1.10000,0.90000,1.10000,0.90000
 70293,'VALPACOS    ', 220.0000,4,   6,   1,   2,1.00000,   0.0000,1.10000,0.90000,1.10000,0.90000
 70405,'F.ALENT     ', 400.0000,1,   6,  12,   2,1.04459, -37.3186,1.10000,0.90000,1.10000,0.90000
 70408,'VERMOIM     ', 400.0000,4,   6,   4,   2,1.00000,   0.0000,1.10000,0.90000,1.10000,0.90000
 70411,'A.MIRA      ', 400.0000,1,   6,  10,   2,1.04310, -39.3441,1.10000,0.90000,1.10000,0.90000
 70414,'BATALHA     ', 400.0000,1,   6,   8,   2,1.04441, -38.7123,1.10000,0.90000,1.10000,0.90000
 70415,'F.FERRO     ', 400.0000,4,   6,  11,   2,1.00000,   0.0000,1.10000,0.90000,1.10000,0.90000
 70416,'R.MAIOR     ', 400.0000,1,   6,   9,   2,1.04780, -38.6711,1.10000,0.90000,1.10000,0.90000
 70417,'PALMELA     ', 400.0000,1,   6,  11,   2,1.04809, -38.0621,1.10000,0.90000,1.10000,0.90000
 70419,'SINES       ', 400.0000,1,   6,  12,   2,1.04555, -35.1184,1.10000,0.90000,1.10000,0.90000
 70422,'RIBADAV     ', 400.0000,1,   6,   1,   2,1.04511, -33.7683,1.10000,0.90000,1.10000,0.90000
 70425,'FANHOES     ', 400.0000,1,   6,  10,   2,1.04137, -39.1774,1.10000,0.90000,1.10000,0.90000
 70429,'V.MINHO     ', 400.0000,4,   6,   1,   2,1.00000,   0.0000,1.10000,0.90000,1.10000,0.90000
 70436,'FEIRA       ', 400.0000,4,   6,   4,   2,1.00000,   0.0000,1.10000,0.90000,1.10000,0.90000
 70437,'RECAREI     ', 400.0000,1,   6,   4,   2,1.04186, -35.1154,1.10000,0.90000,1.10000,0.90000
 70448,'LAVOS       ', 400.0000,1,   6,   6,   2,1.04149, -35.4853,1.10000,0.90000,1.10000,0.90000
 70451,'A.LINDO     ', 400.0000,1,   6,   1,   2,1.05261, -29.7431,1.10000,0.90000,1.10000,0.90000
 70457,'FALAGUE     ', 400.0000,1,   6,  14,   2,1.04108, -39.2291,1.10000,0.90000,1.10000,0.90000
 70460,'PEGO        ', 400.0000,1,   6,  14,   2,1.04205, -38.3492,1.10000,0.90000,1.10000,0.90000
 70474,'RIBATEJO    ', 400.0000,1,   6,  10,   2,1.04002, -38.1798,1.10000,0.90000,1.10000,0.90000
 70476,'PARAIMO     ', 400.0000,1,   6,   6,   2,1.04426, -37.8590,1.10000,0.90000,1.10000,0.90000
 70482,'PEDRALVA    ', 400.0000,1,   6,   1,   2,1.04843, -32.2631,1.10000,0.90000,1.10000,0.90000
 70484,'ALQUEVA     ', 400.0000,1,   6,  12,   2,1.03972, -39.1303,1.10000,0.90000,1.10000,0.90000
 70563,'RUIVAES     ', 130.0000,1,   6,   1,   2,1.00046, -39.9171,1.10000,0.90000,1.10000,0.90000
 70582,'PEDRALVA    ', 130.0000,1,   6,   1,   2,1.00813, -38.4893,1.10000,0.90000,1.10000,0.90000
 70601,'ZEZERE      ',  63.0000,1,   6,   7,   3,0.99315, -43.6146,1.10000,0.90000,1.10000,0.90000
 70602,'SACAVEM     ',  63.0000,1,   6,  10,   3,1.00784, -44.1934,1.10000,0.90000,1.10000,0.90000
 70603,'ERMESIN     ',  63.0000,1,   6,   4,   3,1.01127, -41.8126,1.10000,0.90000,1.10000,0.90000
 70604,'SETUBAL     ',  63.0000,1,   6,  11,   3,1.00253, -41.5170,1.10000,0.90000,1.10000,0.90000
 70605,'F.ALENT     ',  63.0000,1,   6,  12,   3,0.99075, -39.6569,1.10000,0.90000,1.10000,0.90000
 70606,'PEREIRO     ',  63.0000,1,   6,   6,   3,1.00365, -44.2885,1.10000,0.90000,1.10000,0.90000
 70607,'POCINHO     ',  63.0000,1,   6,   3,   3,1.00529, -40.7658,1.10000,0.90000,1.10000,0.90000
 70608,'VERMOIM     ',  63.0000,1,   6,   4,   3,1.01374, -49.5841,1.10000,0.90000,1.10000,0.90000
 70609,'P.ALTO      ',  63.0000,1,   6,  11,   3,0.99686, -41.2238,1.10000,0.90000,1.10000,0.90000
 70610,'V.CHA       ',  63.0000,1,   6,   5,   3,1.00862, -43.6933,1.10000,0.90000,1.10000,0.90000
 70611,'A.MIRA      ',  63.0000,1,   6,  10,   3,1.01330, -42.9582,1.10000,0.90000,1.10000,0.90000
 70612,'ESTARRE     ',  63.0000,1,   6,   4,   3,1.01381, -44.4821,1.10000,0.90000,1.10000,0.90000
 70613,'TUNES       ',  63.0000,1,   6,  13,   3,0.98938, -44.2887,1.10000,0.90000,1.10000,0.90000
 70614,'BATALHA     ',  63.0000,1,   6,   8,   3,1.00939, -43.4382,1.10000,0.90000,1.10000,0.90000
 70615,'F.FERRO     ',  63.0000,1,   6,  11,   3,0.99674, -42.4893,1.10000,0.90000,1.10000,0.90000
 70616,'R.MAIOR     ',  63.0000,1,   6,   9,   3,1.01552, -43.6059,1.10000,0.90000,1.10000,0.90000
 70618,'CARREGA     ',  63.0000,1,   6,  10,   3,1.01486, -43.4617,1.10000,0.90000,1.10000,0.90000
 70619,'SINES       ',  63.0000,1,   6,  12,   3,1.00155, -37.2549,1.10000,0.90000,1.10000,0.90000
 70620,'VALDIGE     ',  63.0000,1,   6,   2,   3,1.01138, -38.9235,1.10000,0.90000,1.10000,0.90000
 70622,'RIBADAV     ',  63.0000,1,   6,   1,   3,1.00279, -39.9813,1.10000,0.90000,1.10000,0.90000
 70623,'MOURISC     ',  63.0000,1,   6,   6,   3,1.00748, -44.2620,1.10000,0.90000,1.10000,0.90000
 70624,'CANELAS     ',  63.0000,1,   6,   4,   3,1.01539, -43.1169,1.10000,0.90000,1.10000,0.90000
 70625,'FANHOES     ',  63.0000,1,   6,  10,   3,1.00607, -41.9122,1.10000,0.90000,1.10000,0.90000
 70627,'GUIMARA     ',  63.0000,1,   6,   1,   3,0.99773, -39.6933,1.10000,0.90000,1.10000,0.90000
 70628,'MOGOFOR     ',  63.0000,1,   6,   6,   3,1.00681, -39.9577,1.10000,0.90000,1.10000,0.90000
 70630,'POMBAL      ',  63.0000,1,   6,   8,   3,1.00748, -39.3320,1.10000,0.90000,1.10000,0.90000
 70631,'V.FRIA      ',  63.0000,1,   6,   1,   3,1.00580, -39.9366,1.10000,0.90000,1.10000,0.90000
 70632,'CUSTOIA     ',  63.0000,1,   6,   4,   3,1.00838, -42.2188,1.10000,0.90000,1.10000,0.90000
 70634,'CARRICH     ',  63.0000,1,   6,  10,   3,1.01157, -44.0144,1.10000,0.90000,1.10000,0.90000
 70635,'TRAJOUC     ',  63.0000,1,   6,  10,   3,1.01317, -47.2484,1.10000,0.90000,1.10000,0.90000
 70636,'FEIRA       ',  63.0000,4,   6,   4,   3,1.00000,   0.0000,1.10000,0.90000,1.10000,0.90000
 70637,'RECAREI     ',  63.0000,1,   6,   4,   3,1.01038, -40.5548,1.10000,0.90000,1.10000,0.90000
 70638,'S.RIOS      ',  63.0000,1,   6,  10,   3,1.00744, -44.9445,1.10000,0.90000,1.10000,0.90000
 70639,'EVORA       ',  63.0000,1,   6,  12,   3,0.99013, -42.6791,1.10000,0.90000,1.10000,0.90000
 70640,'TRAFARIA    ',  63.0000,1,   6,  11,   3,0.99738, -42.9676,1.10000,0.90000,1.10000,0.90000
 70641,'FAFE        ',  63.0000,4,   6,   1,   3,1.00000,   0.0000,1.10000,0.90000,1.10000,0.90000
 70642,'A.S.JOAO    ',  63.0000,4,   6,  10,   3,1.00000,   0.0000,1.10000,0.90000,1.10000,0.90000
 70643,'PRACANA     ',  63.0000,1,   6,  14,   3,1.00223, -47.2022,1.10000,0.90000,1.10000,0.90000
 70646,'TORRAO      ',  63.0000,1,   6,   4,   3,1.00855, -40.8663,1.10000,0.90000,1.10000,0.90000
 70648,'LAVOS       ',  63.0000,1,   6,   6,   3,1.01304, -37.5085,1.10000,0.90000,1.10000,0.90000
 70655,'CHAVES      ',  63.0000,1,   6,   1,   3,1.00090, -38.1216,1.10000,0.90000,1.10000,0.90000
 70656,'ESTOI       ',  63.0000,1,   6,  13,   3,0.99405, -45.8601,1.10000,0.90000,1.10000,0.90000
 70657,'FALAGUE     ',  63.0000,1,   6,  14,   3,1.00223, -47.2017,1.10000,0.90000,1.10000,0.90000
 70661,'OLEIROS     ',  63.0000,1,   6,   1,   3,1.00252, -40.8093,1.10000,0.90000,1.10000,0.90000
 70662,'FERRO       ',  63.0000,1,   6,   5,   3,0.99908, -44.1169,1.10000,0.90000,1.10000,0.90000
 70664,'MOGADOU     ',  63.0000,1,   6,   3,   3,1.01022, -36.6492,1.10000,0.90000,1.10000,0.90000
 70665,'SANTARE     ',  63.0000,1,   6,   9,   3,1.00598, -43.3948,1.10000,0.90000,1.10000,0.90000
 70666,'CHAFARI     ',  63.0000,1,   6,   5,   3,1.00060, -43.6182,1.10000,0.90000,1.10000,0.90000
 70668,'CARRAPAT    ',  63.0000,1,   6,   4,   3,1.01574, -39.6488,1.10000,0.90000,1.10000,0.90000
 70670,'PRELADA     ',  63.0000,1,   6,   4,   3,0.98838, -53.0063,1.10000,0.90000,1.10000,0.90000
 70676,'PARAIMO     ',  63.0000,1,   6,   6,   3,1.00976, -39.7324,1.10000,0.90000,1.10000,0.90000
 70677,'PORTIMAO    ',  63.0000,1,   6,  13,   3,0.99299, -42.9762,1.10000,0.90000,1.10000,0.90000
 70678,'BODIOSA     ',  63.0000,1,   6,   5,   3,1.01253, -41.7419,1.10000,0.90000,1.10000,0.90000
 70679,'PENELA      ',  63.0000,1,   6,   6,   3,1.00168, -42.5676,1.10000,0.90000,1.10000,0.90000
 70681,'C.BRANCO    ',  63.0000,1,   6,   7,   3,1.00265, -46.4796,1.10000,0.90000,1.10000,0.90000
 70683,'FRADES      ',  63.0000,1,   6,   1,   3,1.00666, -35.8072,1.10000,0.90000,1.10000,0.90000
 70684,'ALQUEVA     ',  63.0000,1,   6,  12,   3,0.98251, -39.6690,1.10000,0.90000,1.10000,0.90000
 70685,'M.CAVALE    ',  63.0000,1,   6,   3,   3,1.01382, -35.9015,1.10000,0.90000,1.10000,0.90000
 70686,'CARVOEIR    ',  63.0000,1,   6,  10,   3,1.00603, -43.3768,1.10000,0.90000,1.10000,0.90000
 70687,'V.P.AGUI    ',  63.0000,1,   6,   2,   3,1.01313, -38.1686,1.10000,0.90000,1.10000,0.90000
 70688,'ZAMBUJAL    ',  63.0000,4,   6,  10,   3,1.00000,   0.0000,1.10000,0.90000,1.10000,0.90000
 70691,'TABUA       ',  63.0000,1,   6,   6,   3,1.00245, -43.3616,1.10000,0.90000,1.10000,0.90000
 70692,'ESTREMOZ    ',  63.0000,1,   6,  12,   3,1.00401, -50.1712,1.10000,0.90000,1.10000,0.90000
 70693,'VALPACOS    ',  63.0000,4,   6,   1,   3,1.00000,   0.0000,1.10000,0.90000,1.10000,0.90000
 71020,'V.NOVA      ', 150.0000,1,   6,   1,   2,1.04394, -36.3202,1.10000,0.90000,1.10000,0.90000
 71030,'SALAMON     ', 150.0000,1,   6,   1,   2,1.04176, -36.3876,1.10000,0.90000,1.10000,0.90000
 71040,'CABRIL      ', 150.0000,1,   6,   7,   2,1.04000, -40.3001,1.10000,0.90000,1.10000,0.90000
 71060,'BOUCA       ', 150.0000,1,   6,   7,   2,1.03695, -40.7143,1.10000,0.90000,1.10000,0.90000
 71100,'A.RABAG     ', 150.0000,1,   6,   1,   2,1.03812, -36.5860,1.10000,0.90000,1.10000,0.90000
 71110,'TABUACO     ', 150.0000,1,   6,   2,   2,1.04000, -34.7051,1.10000,0.90000,1.10000,0.90000
 71130,'V.FURNA     ', 150.0000,1,   6,   1,   2,1.03979, -37.0380,1.10000,0.90000,1.10000,0.90000
 71137,'PMFF4/SX    ', 150.0000,1,   6,  11,   2,1.02073, -40.6698,1.10000,0.90000,1.10000,0.90000
 71150,'FRATEL      ', 150.0000,1,   6,  14,   2,1.02108, -46.2519,1.10000,0.90000,1.10000,0.90000
 71270,'C.FRADES    ', 150.0000,1,   6,   1,   2,1.04434, -36.3659,1.10000,0.90000,1.10000,0.90000
 71277,'CDRA2/GR    ', 150.0000,1,   6,   1,   2,1.03759, -37.8097,1.10000,0.90000,1.10000,0.90000
 71557,'ARFRD       ', 150.0000,1,   6,   1,   2,1.03812, -36.5860,1.10000,0.90000,1.10000,0.90000
 71617,'VNRA/OR     ', 150.0000,4,   6,   1,   2,1.00000,   0.0000,1.10000,0.90000,1.10000,0.90000
 71771,'C.SINES1    ', 150.0000,1,   6,  12,   2,1.04500, -32.7757,1.10000,0.90000,1.10000,0.90000
 71826,'FRDRA/PD    ', 150.0000,1,   6,   1,   2,1.04002, -37.2991,1.10000,0.90000,1.10000,0.90000
 71827,'FDCD/PDV    ', 150.0000,4,   6,   1,   2,1.00000,   0.0000,1.10000,0.90000,1.10000,0.90000
 71837,'CDRA/FRD    ', 150.0000,1,   6,   1,   2,1.04012, -37.0345,1.10000,0.90000,1.10000,0.90000
 71846,'PMMP/PE     ', 150.0000,1,   6,  11,   2,1.02539, -38.9029,1.10000,0.90000,1.10000,0.90000
 71847,'PMER/PE     ', 150.0000,1,   6,  11,   2,1.02435, -39.9649,1.10000,0.90000,1.10000,0.90000
 71867,'PAQG2       ', 150.0000,1,   6,  11,   2,1.01974, -40.4379,1.10000,0.90000,1.10000,0.90000
 71911,'FRCC1/RD    ', 150.0000,1,   6,   7,   2,1.01991, -45.9126,1.10000,0.90000,1.10000,0.90000
 71912,'FRCC2/RD    ', 150.0000,1,   6,   7,   2,1.01991, -45.9010,1.10000,0.90000,1.10000,0.90000
 71987,'VMED3/MA    ', 150.0000,1,   6,   4,   2,1.03936, -38.8407,1.10000,0.90000,1.10000,0.90000
 72011,'C.BODE1     ', 220.0000,1,   6,   7,   2,1.04828, -41.9949,1.10000,0.90000,1.10000,0.90000
 72012,'C.BODE2     ', 220.0000,1,   6,   7,   2,1.04822, -41.9847,1.10000,0.90000,1.10000,0.90000
 72013,'C.BODE3     ', 220.0000,1,   6,   7,   2,1.04828, -41.9949,1.10000,0.90000,1.10000,0.90000
 72027,'RRCT/MAA    ', 220.0000,1,   6,   4,   2,1.03444, -39.1365,1.10000,0.90000,1.10000,0.90000
 72080,'MIRANDA     ', 220.0000,1,   6,   3,   2,1.05261, -35.5465,1.10000,0.90000,1.10000,0.90000
...
0 / END OF BUS DATA, BEGIN LOAD DATA
 11015,'1 ',1,   1,  99,  -470.000,   -59.300,     0.000,     0.000,     0.000,     0.000, 111,1,0
 11016,'1 ',1,   1,  99,  -470.400,   -59.100,     0.000,     0.000,     0.000,     0.000, 111,1,0
 14030,'1 ',1,   1,  99,   194.300,     0.000,     0.000,     0.000,     0.000,     0.000, 116,1,0
 15013,'1 ',1,   1,  99,   338.200,   -10.200,     0.000,     0.000,     0.000,     0.000, 111,1,0
 22010,'1 ',1,   1,  99,   -58.000,   -51.400,     0.000,     0.000,     0.000,     0.000, 134,1,0
 22011,'1 ',1,   1,  99,    26.800,   -49.700,     0.000,     0.000,     0.000,     0.000, 134,1,0
 22195,'1 ',1,   1,  99,   -74.800,   -41.000,     0.000,     0.000,     0.000,     0.000, 112,1,0
 70171,'1 ',1,   6,  12,     1.539,     0.154,     0.000,     0.000,     0.000,     0.000,   3,1,0
 70172,'1 ',1,   6,  12,     1.924,     0.077,     0.000,     0.000,     0.000,     0.000,   3,1,0
 70269,'1 ',1,   6,   2,     1.924,     0.000,     0.000,     0.000,     0.000,     0.000,   3,1,0
 70563,'1 ',1,   6,   1,    69.231,    11.858,     0.000,     0.000,     0.000,     0.000,   3,1,0
 70582,'1 ',1,   6,   1,    13.226,     2.736,     0.000,     0.000,     0.000,     0.000,   2,1,0
 70601,'1 ',1,   6,   7,   169.657,    26.087,     0.000,     0.000,     0.000,     0.000,   3,1,0
 70602,'1 ',1,   6,  10,   158.621,    17.604,     0.000,     0.000,     0.000,     0.000,   3,1,0
 70603,'1 ',1,   6,   4,   165.279,    30.465,     0.000,     0.000,     0.000,     0.000,   3,1,0
 70604,'1 ',1,   6,  11,   246.551,    41.411,     0.000,     0.000,     0.000,     0.000,   3,1,0
 70605,'1 ',1,   6,  12,    51.627,     8.665,     0.000,     0.000,     0.000,     0.000,   3,1,0
 70606,'1 ',1,   6,   6,   152.600,    21.982,     0.000,     0.000,     0.000,     0.000,   3,1,0
 70607,'1 ',1,   6,   3,    55.640,    12.587,     0.000,     0.000,     0.000,     0.000,   3,1,0
 70608,'1 ',1,   6,   4,   360.659,    82.913,     0.000,     0.000,     0.000,     0.000,   3,1,0
 70609,'1 ',1,   6,  11,    39.313,     3.649,     0.000,     0.000,     0.000,     0.000,   3,1,0
 70610,'1 ',1,   6,   5,   105.534,    18.699,     0.000,     0.000,     0.000,     0.000,   3,1,0
 70611,'1 ',1,   6,  10,   169.475,    26.361,     0.000,     0.000,     0.000,     0.000,   3,1,0
 70612,'1 ',1,   6,   4,   290.333,    67.772,     0.000,     0.000,     0.000,     0.000,   3,1,0
 70613,'1 ',1,   6,  13,    74.248,     8.027,     0.000,     0.000,     0.000,     0.000,   3,1,0
 70614,'1 ',1,   6,   8,   184.343,    47.431,     0.000,     0.000,     0.000,     0.000,   3,1,0
 70615,'1 ',1,   6,  11,   116.571,    18.972,     0.000,     0.000,     0.000,     0.000,   3,1,0
 70616,'1 ',1,   6,   9,   111.646,    18.790,     0.000,     0.000,     0.000,     0.000,   3,1,0
 70618,'1 ',1,   6,  10,   109.183,    19.793,     0.000,     0.000,     0.000,     0.000,   3,1,0
 70619,'1 ',1,   6,  12,    73.701,    10.034,     0.000,     0.000,     0.000,     0.000,   3,1,0
 70620,'1 ',1,   6,   2,    78.991,    21.709,     0.000,     0.000,     0.000,     0.000,   3,1,0
 70622,'1 ',1,   6,   1,   314.140,    82.366,     0.000,     0.000,     0.000,     0.000,   3,1,0
 70623,'1 ',1,   6,   6,   196.657,    35.665,     0.000,     0.000,     0.000,     0.000,   3,1,0
 70624,'1 ',1,   6,   4,   233.598,    53.725,     0.000,     0.000,     0.000,     0.000,   3,1,0
 70625,'1 ',1,   6,  10,   193.738,    41.046,     0.000,     0.000,     0.000,     0.000,   3,1,0
 70627,'1 ',1,   6,   1,    54.181,    14.229,     0.000,     0.000,     0.000,     0.000,   3,1,0
 70628,'1 ',1,   6,   6,     8.848,     7.115,     0.000,     0.000,     0.000,     0.000,   3,1,0
 70630,'1 ',1,   6,   8,    12.314,     2.736,     0.000,     0.000,     0.000,     0.000,   3,1,0
 70631,'1 ',1,   6,   1,   152.144,    34.570,     0.000,     0.000,     0.000,     0.000,   3,1,0
 70632,'1 ',1,   6,   4,   160.810,    34.935,     0.000,     0.000,     0.000,     0.000,   3,1,0
 70634,'1 ',1,   6,  10,   159.259,    23.259,     0.000,     0.000,     0.000,     0.000,   3,1,0
 70635,'1 ',1,   6,  10,   288.965,    53.816,     0.000,     0.000,     0.000,     0.000,   3,1,0
 70636,'1 ',1,   6,   4,   203.535,    47.318,     0.000,     0.000,     0.000,     0.000,   3,1,0
 70637,'1 ',1,   6,   4,    82.640,    12.770,     0.000,     0.000,     0.000,     0.000,   3,1,0
 70638,'1 ',1,   6,  10,   173.397,    26.726,     0.000,     0.000,     0.000,     0.000,   3,1,0
 70639,'1 ',1,   6,  12,    50.624,     9.121,     0.000,     0.000,     0.000,     0.000,   3,1,0
 70640,'1 ',1,   6,  11,    76.072,    10.216,     0.000,     0.000,     0.000,     0.000,   3,1,0
 70641,'1 ',1,   6,   1,   136.076,    35.946,     0.000,     0.000,     0.000,     0.000,   3,1,0
 70642,'1 ',1,   6,  10,    36.621,     4.048,     0.000,     0.000,     0.000,     0.000,   3,1,0
 70643,'1 ',1,   6,   7,     0.000,     0.000,     0.000,     0.000,     0.000,     0.000,   3,1,0
 70646,'1 ',1,   6,   4,    63.029,    12.131,     0.000,     0.000,     0.000,     0.000,   3,1,0
 70648,'1 ',1,   6,   6,   203.863,    45.698,     0.000,     0.000,     0.000,     0.000,   3,1,0
 70655,'1 ',1,   6,   1,    30.830,    24.628,     0.000,     0.000,     0.000,     0.000,   3,1,0
 70656,'1 ',1,   6,  13,   118.943,     8.483,     0.000,     0.000,     0.000,     0.000,   3,1,0
 70657,'1 ',1,   6,   7,    37.671,     4.378,     0.000,     0.000,     0.000,     0.000,   3,1,0
 70661,'1 ',1,   6,   1,   149.226,    47.522,     0.000,     0.000,     0.000,     0.000,   3,1,0
 70662,'1 ',1,   6,   5,    46.884,     4.287,     0.000,     0.000,     0.000,     0.000,   3,1,0
 70664,'1 ',1,   6,   3,     6.659,     1.551,     0.000,     0.000,     0.000,     0.000,   3,1,0
 70665,'1 ',1,   6,   9,    64.306,     9.213,     0.000,     0.000,     0.000,     0.000,   3,1,0
 70666,'1 ',1,   6,   5,    53.086,    10.398,     0.000,     0.000,     0.000,     0.000,   3,1,0
 70668,'1 ',1,   6,   4,    18.608,     4.378,     0.000,     0.000,     0.000,     0.000,   3,1,0
 70670,'1 ',1,   6,   4,    90.472,    20.849,     0.000,     0.000,     0.000,     0.000,   3,1,0
 70676,'1 ',1,   6,   6,    51.627,    12.314,     0.000,     0.000,     0.000,     0.000,   3,1,0
 70677,'1 ',1,   6,  13,    53.816,     1.186,     0.000,     0.000,     0.000,     0.000,   3,1,0
 70678,'1 ',1,   6,   5,    81.727,    10.581,     0.000,     0.000,     0.000,     0.000,   3,1,0
 70679,'1 ',1,   6,   6,    17.057,     5.108,     0.000,     0.000,     0.000,     0.000,   3,1,0
 70681,'1 ',1,   6,   7,    34.661,     3.466,     0.000,     0.000,     0.000,     0.000,   2,1,0
 70683,'1 ',1,   6,   1,     0.091,     0.000,     0.000,     0.000,     0.000,     0.000,   3,1,0
 70684,'1 ',1,   6,  12,    12.131,     2.189,     0.000,     0.000,     0.000,     0.000,   3,1,0
 70685,'1 ',0,   6,   3,     0.000,     0.000,     0.000,     0.000,     0.000,     0.000,   3,1,0
 70686,'1 ',1,   6,  10,    33.931,     4.743,     0.000,     0.000,     0.000,     0.000,   3,1,0
 70687,'1 ',1,   6,   2,    17.331,     4.013,     0.000,     0.000,     0.000,     0.000,   3,1,0
 70688,'1 ',1,   6,  10,   155.639,    24.189,     0.000,     0.000,     0.000,     0.000,   3,1,0
 70691,'1 ',1,   6,   6,    26.388,     4.693,     0.000,     0.000,     0.000,     0.000,   3,1,0
 70692,'1 ',1,   6,  12,    24.172,     0.912,     0.000,     0.000,     0.000,     0.000,   3,1,0
 70693,'1 ',1,   6,   2,    49.438,    11.275,     0.000,     0.000,     0.000,     0.000,   3,1,0
 75102,'1 ',1,   6,   4,     0.000,     0.000,     0.000,     0.000,     0.000,     0.000,   2,1,0
 75103,'1 ',1,   6,  12,    23.080,     7.924,     0.000,     0.000,     0.000,     0.000,   3,1,0
 75104,'1 ',1,   6,  11,    15.387,     3.308,     0.000,     0.000,     0.000,     0.000,   3,1,0
 75107,'1 ',1,   6,  11,     2.693,     0.154,     0.000,     0.000,     0.000,     0.000,   3,1,0
 75109,'1 ',1,   6,  11,     5.000,     1.539,     0.000,     0.000,     0.000,     0.000,   3,1,0
 75110,'1 ',1,   6,  11,     1.539,     0.154,     0.000,     0.000,     0.000,     0.000,   3,1,0
 75115,'1 ',1,   6,   7,     1.154,     0.000,     0.000,     0.000,     0.000,     0.000,   3,1,0
 75116,'1 ',1,   6,  12,     1.924,     0.077,     0.000,     0.000,     0.000,     0.000,   3,1,0
 75117,'1 ',1,   6,  11,     5.385,     0.385,     0.000,     0.000,     0.000,     0.000,   2,1,0
 75202,'1 ',1,   6,   4,    69.238,    11.848,     0.000,     0.000,     0.000,     0.000,   3,1,0
 75205,'1 ',1,   6,   5,     1.924,     0.000,     0.000,     0.000,     0.000,     0.000,   3,1,0
 75206,'1 ',1,   6,   6,     1.539,     0.000,     0.000,     0.000,     0.000,     0.000,   3,1,0
 75208,'1 ',1,   6,   5,     1.154,     0.000,     0.000,     0.000,     0.000,     0.000,   3,1,0
 75212,'1 ',1,   6,  11,    84.625,    19.695,     0.000,     0.000,     0.000,     0.000,   3,1,0
 75218,'1 ',1,   6,   7,     1.154,     0.000,     0.000,     0.000,     0.000,     0.000,   2,1,0
0 / END OF LOAD DATA, BEGIN FIXED SHUNT DATA
 70281,'1 ',1,     0.000,   -70.000
 70291,'1 ',1,     0.000,   -70.000
 70601,'1 ',1,     0.000,    50.000
 70603,'1 ',1,     0.000,    50.000
 70604,'1 ',1,     0.000,    50.000
 70606,'1 ',1,     0.000,    30.000
 70608,'1 ',1,     0.000,    80.000
 70610,'1 ',1,     0.000,    30.000
 70611,'1 ',1,     0.000,    50.000
 70612,'1 ',1,     0.000,    40.000
 70613,'1 ',1,     0.000,    30.000
 70614,'1 ',1,     0.000,    50.000
 70615,'1 ',1,     0.000,    50.000
 70616,'1 ',1,     0.000,    50.000
 70622,'1 ',1,     0.000,    80.000
 70623,'1 ',1,     0.000,    40.000
 70624,'1 ',1,     0.000,    60.000
 70625,'1 ',1,     0.000,    40.000
 70631,'1 ',1,     0.000,    30.000
 70632,'1 ',1,     0.000,    30.000
 70634,'1 ',1,     0.000,    50.000
 70635,'1 ',1,     0.000,    70.000
 70639,'1 ',1,     0.000,    30.000
 70661,'1 ',1,     0.000,    50.000
0 / END OF FIXED SHUNT DATA, BEGIN GENERATOR DATA
 75157,'C ',    78.300,     0.000,     0.000,     0.000,1.00000,     0,   223.000, 0.00000E+0, 2.10000E-1, 0.00000E+0, 0.00000E+0,1.00000,1,  100.0,   202.800, -9999.000,   8,1.0000
 77016,'H ',     0.000,     0.000,     1.500,     1.500,1.00000,     0,    14.000, 0.00000E+0, 2.10000E-1, 0.00000E+0, 0.00000E+0,1.00000,0,  100.0,    13.000, -9999.000,   6,1.0000
 77018,'C ',    20.300,     7.000,     7.000,     7.000,1.00000,     0,    54.000, 0.00000E+0, 2.10000E-1, 0.00000E+0, 0.00000E+0,1.00000,1,  100.0,    48.700, -9999.000,   8,1.0000
 77019,'O ',    17.800,     2.700,     2.700,     2.700,1.00000,     0,    38.500, 0.00000E+0, 2.10000E-1, 0.00000E+0, 0.00000E+0,1.00000,1,  100.0,    38.500, -9999.000,   9,1.0000
 77028,'C ',    15.600,     2.300,     2.300,     2.300,1.00000,     0,    33.000, 0.00000E+0, 2.10000E-1, 0.00000E+0, 0.00000E+0,1.00000,1,  100.0,    29.900, -9999.000,   8,1.0000
 77038,'C ',     2.500,     0.500,     0.500,     0.500,1.00000,     0,     4.000, 0.00000E+0, 2.10000E-1, 0.00000E+0, 0.00000E+0,1.00000,1,  100.0,     3.600, -9999.000,   8,1.0000
 77045,'S ',     0.000,     0.000,     0.000,     0.000,1.00000,     0,    25.700, 0.00000E+0, 2.10000E-1, 0.00000E+0, 0.00000E+0,1.00000,0,  100.0,    25.700, -9999.000,   5,1.0000
 77048,'C ',   128.400,    17.900,    17.900,    17.900,1.00000,     0,   212.000, 0.00000E+0, 2.10000E-1, 0.00000E+0, 0.00000E+0,1.00000,1,  100.0,   193.000, -9999.000,   8,1.0000
 77049,'O ',     0.000,     0.000,     1.400,     1.400,1.00000,     0,    19.700, 0.00000E+0, 2.10000E-1, 0.00000E+0, 0.00000E+0,1.00000,0,  100.0,    19.700, -9999.000,   9,1.0000
 77055,'S ',    12.900,     0.000,     0.000,     0.000,1.00000,     0,    52.200, 0.00000E+0, 2.10000E-1, 0.00000E+0, 0.00000E+0,1.00000,1,  100.0,    52.200, -9999.000,   5,1.0000
 77056,'H ',     0.000,     0.000,     1.200,     1.200,1.00000,     0,     6.000, 0.00000E+0, 2.10000E-1, 0.00000E+0, 0.00000E+0,1.00000,0,  100.0,     5.000, -9999.000,   6,1.0000
 77065,'S ',     0.000,     0.000,     0.000,     0.000,1.00000,     0,     5.000, 0.00000E+0, 2.10000E-1, 0.00000E+0, 0.00000E+0,1.00000,0,  100.0,     5.000, -9999.000,   5,1.0000
 77066,'H ',     0.500,     3.700,     3.700,     3.700,1.00000,     0,    14.000, 0.00000E+0, 2.10000E-1, 0.00000E+0, 0.00000E+0,1.00000,1,  100.0,    13.000, -9999.000,   6,1.0000
 77068,'C ',     1.700,     0.800,     0.800,     0.800,1.00000,     0,     7.000, 0.00000E+0, 2.10000E-1, 0.00000E+0, 0.00000E+0,1.00000,1,  100.0,     6.100, -9999.000,   8,1.0000
 77069,'O ',     8.900,     1.900,     1.900,     1.900,1.00000,     0,    26.900, 0.00000E+0, 2.10000E-1, 0.00000E+0, 0.00000E+0,1.00000,1,  100.0,    26.900, -9999.000,   9,1.0000
 77076,'H ',     0.400,     0.900,     0.900,     0.900,1.00000,     0,    44.000, 0.00000E+0, 2.10000E-1, 0.00000E+0, 0.00000E+0,1.00000,1,  100.0,    40.000, -9999.000,   6,1.0000
 77088,'C ',    16.800,     4.000,     4.000,     4.000,1.00000,     0,    58.000, 0.00000E+0, 2.10000E-1, 0.00000E+0, 0.00000E+0,1.00000,1,  100.0,    53.000, -9999.000,   8,1.0000
 77089,'O ',    22.200,     4.100,     4.100,     4.100,1.00000,     0,    58.200, 0.00000E+0, 2.10000E-1, 0.00000E+0, 0.00000E+0,1.00000,1,  100.0,    58.200, -9999.000,   9,1.0000
 77098,'C ',     5.200,     1.100,     1.100,     1.100,1.00000,     0,    15.000, 0.00000E+0, 2.10000E-1, 0.00000E+0, 0.00000E+0,1.00000,1,  100.0,    13.900, -9999.000,   8,1.0000
 77106,'H ',    12.800,     9.200,     9.200,     9.200,1.00000,     0,    30.000, 0.00000E+0, 2.10000E-1, 0.00000E+0, 0.00000E+0,1.00000,1,  100.0,    27.000, -9999.000,   6,1.0000
 77108,'C ',     2.100,     3.600,     3.600,     3.600,1.00000,     0,    44.000, 0.00000E+0, 2.10000E-1, 0.00000E+0, 0.00000E+0,1.00000,1,  100.0,    40.000, -9999.000,   8,1.0000
 77115,'S ',     0.000,     0.000,     0.000,     0.000,1.00000,     0,     5.000, 0.00000E+0, 2.10000E-1, 0.00000E+0, 0.00000E+0,1.00000,0,  100.0,     5.000, -9999.000,   5,1.0000
 77125,'S ',     0.000,     0.000,     0.000,     0.000,1.00000,     0,     7.000, 0.00000E+0, 2.10000E-1, 0.00000E+0, 0.00000E+0,1.00000,0,  100.0,     7.000, -9999.000,   5,1.0000
 77126,'H ',     8.300,     1.200,     1.200,     1.200,1.00000,     0,    13.000, 0.00000E+0, 2.10000E-1, 0.00000E+0, 0.00000E+0,1.00000,1,  100.0,    11.800, -9999.000,   6,1.0000
 77128,'C ',    10.000,     6.200,     6.200,     6.200,1.00000,     0,    60.000, 0.00000E+0, 2.10000E-1, 0.00000E+0, 0.00000E+0,1.00000,1,  100.0,    54.900, -9999.000,   8,1.0000
 77135,'S ',     0.000,     0.000,     0.000,     0.000,1.00000,     0,    23.900, 0.00000E+0, 2.10000E-1, 0.00000E+0, 0.00000E+0,1.00000,0,  100.0,    23.900, -9999.000,   5,1.0000
 77145,'S ',     0.000,     0.000,     0.000,     0.000,1.00000,     0,     5.000, 0.00000E+0, 2.10000E-1, 0.00000E+0, 0.00000E+0,1.00000,0,  100.0,     5.000, -9999.000,   5,1.0000
 77148,'C ',     1.000,     1.000,     1.000,     1.000,1.00000,     0,    10.000, 0.00000E+0, 2.10000E-1, 0.00000E+0, 0.00000E+0,1.00000,1,  100.0,     9.400, -9999.000,   8,1.0000
 77149,'O ',     0.600,     0.500,     0.500,     0.500,1.00000,     0,     7.800, 0.00000E+0, 2.10000E-1, 0.00000E+0, 0.00000E+0,1.00000,1,  100.0,     7.800, -9999.000,   9,1.0000
 77155,'S ',     0.000,     0.000,     0.000,     0.000,1.00000,     0,    26.700, 0.00000E+0, 2.10000E-1, 0.00000E+0, 0.00000E+0,1.00000,0,  100.0,    26.700, -9999.000,   5,1.0000
 77158,'C ',     0.000,     0.000,     5.300,     5.300,1.00000,     0,    44.000, 0.00000E+0, 2.10000E-1, 0.00000E+0, 0.00000E+0,1.00000,0,  100.0,    40.200, -9999.000,   8,1.0000
 77188,'C ',     0.000,     0.000,     2.000,     2.000,1.00000,     0,     7.000, 0.00000E+0, 2.10000E-1, 0.00000E+0, 0.00000E+0,1.00000,0,  100.0,     6.200, -9999.000,   8,1.0000
 77198,'C ',     0.400,     2.900,     2.900,     2.900,1.00000,     0,    86.000, 0.00000E+0, 2.10000E-1, 0.00000E+0, 0.00000E+0,1.00000,1,  100.0,    78.000, -9999.000,   8,1.0000
 77206,'H ',    20.500,     6.700,     6.700,     6.700,1.00000,     0,    74.000, 0.00000E+0, 2.10000E-1, 0.00000E+0, 0.00000E+0,1.00000,1,  100.0,    67.500, -9999.000,   6,1.0000
 77225,'S ',     0.000,     0.000,     0.000,     0.000,1.00000,     0,    12.600, 0.00000E+0, 2.10000E-1, 0.00000E+0, 0.00000E+0,1.00000,0,  100.0,    12.600, -9999.000,   5,1.0000
 77226,'H ',    19.800,     4.200,     4.200,     4.200,1.00000,     0,    53.000, 0.00000E+0, 2.10000E-1, 0.00000E+0, 0.00000E+0,1.00000,1,  100.0,    48.000, -9999.000,   6,1.0000
 77228,'C ',    66.900,    15.800,    15.800,    15.800,1.00000,     0,   184.000, 0.00000E+0, 2.10000E-1, 0.00000E+0, 0.00000E+0,1.00000,1,  100.0,   166.900, -9999.000,   8,1.0000
 77235,'S ',     0.000,     0.000,     0.000,     0.000,1.00000,     0,     5.000, 0.00000E+0, 2.10000E-1, 0.00000E+0, 0.00000E+0,1.00000,0,  100.0,     5.000, -9999.000,   5,1.0000
 77236,'H ',     5.000,     2.300,     2.300,     2.300,1.00000,     0,    20.000, 0.00000E+0, 2.10000E-1, 0.00000E+0, 0.00000E+0,1.00000,1,  100.0,    18.000, -9999.000,   6,1.0000
 77238,'C ',    29.500,     5.900,     5.900,     5.900,1.00000,     0,    65.000, 0.00000E+0, 2.10000E-1, 0.00000E+0, 0.00000E+0,1.00000,1,  100.0,    58.800, -9999.000,   8,1.0000
 77239,'O ',     0.600,     1.400,     1.400,     1.400,1.00000,     0,    19.900, 0.00000E+0, 2.10000E-1, 0.00000E+0, 0.00000E+0,1.00000,1,  100.0,    19.900, -9999.000,   9,1.0000
 77255,'S ',     3.600,     0.000,     0.000,     0.000,1.00000,     0,    17.100, 0.00000E+0, 2.10000E-1, 0.00000E+0, 0.00000E+0,1.00000,1,  100.0,    17.100, -9999.000,   5,1.0000
 77258,'C ',     7.600,     6.100,     6.100,     6.100,1.00000,     0,    76.000, 0.00000E+0, 2.10000E-1, 0.00000E+0, 0.00000E+0,1.00000,1,  100.0,    69.500, -9999.000,   8,1.0000
 77259,'O ',    30.900,     4.900,     4.900,     4.900,1.00000,     0,    70.300, 0.00000E+0, 2.10000E-1, 0.00000E+0, 0.00000E+0,1.00000,1,  100.0,    70.300, -9999.000,   9,1.0000
 77278,'C ',    27.500,     0.900,     0.900,     0.900,1.00000,     0,    38.000, 0.00000E+0, 2.10000E-1, 0.00000E+0, 0.00000E+0,1.00000,1,  100.0,    34.500, -9999.000,   8,1.0000
 77308,'C ',    19.000,     3.700,     3.700,     3.700,1.00000,     0,    32.000, 0.00000E+0, 2.10000E-1, 0.00000E+0, 0.00000E+0,1.00000,1,  100.0,    29.500, -9999.000,   8,1.0000
 77316,'H ',    10.600,     3.900,     3.900,     3.900,1.00000,     0,    18.000, 0.00000E+0, 2.10000E-1, 0.00000E+0, 0.00000E+0,1.00000,1,  100.0,    16.300, -9999.000,   6,1.0000
 77318,'C ',    51.900,    11.200,    11.200,    11.200,1.00000,     0,    92.000, 0.00000E+0, 2.10000E-1, 0.00000E+0, 0.00000E+0,1.00000,1,  100.0,    83.800, -9999.000,   8,1.0000
 77328,'C ',    11.400,     7.400,     7.400,     7.400,1.00000,     0,   124.000, 0.00000E+0, 2.10000E-1, 0.00000E+0, 0.00000E+0,1.00000,1,  100.0,   112.600, -9999.000,   8,1.0000
 77355,'S ',     0.000,     0.000,     0.000,     0.000,1.00000,     0,     6.000, 0.00000E+0, 2.10000E-1, 0.00000E+0, 0.00000E+0,1.00000,0,  100.0,     6.000, -9999.000,   5,1.0000
 77358,'C ',     0.000,     0.000,     0.600,     0.600,1.00000,     0,    10.000, 0.00000E+0, 2.10000E-1, 0.00000E+0, 0.00000E+0,1.00000,0,  100.0,     8.800, -9999.000,   8,1.0000
 77368,'C ',     0.000,     0.000,     1.600,     1.600,1.00000,     0,    17.000, 0.00000E+0, 2.10000E-1, 0.00000E+0, 0.00000E+0,1.00000,0,  100.0,    15.700, -9999.000,   8,1.0000
 77369,'O ',     0.000,     0.000,     0.800,     0.800,1.00000,     0,    11.300, 0.00000E+0, 2.10000E-1, 0.00000E+0, 0.00000E+0,1.00000,0,  100.0,    11.300, -9999.000,   9,1.0000
 77408,'C ',     7.700,     1.100,     1.100,     1.100,1.00000,     0,    13.000, 0.00000E+0, 2.10000E-1, 0.00000E+0, 0.00000E+0,1.00000,1,  100.0,    12.200, -9999.000,   8,1.0000
 77416,'H ',    13.300,     0.000,     2.500,     2.500,1.00000,     0,    27.000, 0.00000E+0, 2.10000E-1, 0.00000E+0, 0.00000E+0,1.00000,1,  100.0,    24.600, -9999.000,   6,1.0000
 77488,'C ',   139.900,    26.000,    26.000,    26.000,1.00000,     0,   280.000, 0.00000E+0, 2.10000E-1, 0.00000E+0, 0.00000E+0,1.00000,1,  100.0,   254.300, -9999.000,   8,1.0000
 77489,'O ',    12.200,     2.500,     2.500,     2.500,1.00000,     0,    35.200, 0.00000E+0, 2.10000E-1, 0.00000E+0, 0.00000E+0,1.00000,1,  100.0,    35.200, -9999.000,   9,1.0000
 77565,'S ',     0.000,     0.000,     0.000,     0.000,1.00000,     0,    16.400, 0.00000E+0, 2.10000E-1, 0.00000E+0, 0.00000E+0,1.00000,0,  100.0,    16.400, -9999.000,   5,1.0000
 77576,'H ',     0.000,     0.000,     0.800,     0.800,1.00000,     0,     9.000, 0.00000E+0, 2.10000E-1, 0.00000E+0, 0.00000E+0,1.00000,0,  100.0,     8.000, -9999.000,   6,1.0000
 77579,'O ',    15.700,     2.200,     2.200,     2.200,1.00000,     0,    31.500, 0.00000E+0, 2.10000E-1, 0.00000E+0, 0.00000E+0,1.00000,1,  100.0,    31.500, -9999.000,   9,1.0000
 77615,'S ',     0.000,     0.000,     0.000,     0.000,1.00000,     0,     5.000, 0.00000E+0, 2.10000E-1, 0.00000E+0, 0.00000E+0,1.00000,0,  100.0,     5.000, -9999.000,   5,1.0000
 77616,'H ',     5.400,     1.000,     1.000,     1.000,1.00000,     0,    11.000, 0.00000E+0, 2.10000E-1, 0.00000E+0, 0.00000E+0,1.00000,1,  100.0,     9.600, -9999.000,   6,1.0000
 77618,'C ',    16.000,     2.600,     2.600,     2.600,1.00000,     0,    32.000, 0.00000E+0, 2.10000E-1, 0.00000E+0, 0.00000E+0,1.00000,1,  100.0,    28.900, -9999.000,   8,1.0000
 77626,'H ',     4.500,     5.100,     5.100,     5.100,1.00000,     0,    22.000, 0.00000E+0, 2.10000E-1, 0.00000E+0, 0.00000E+0,1.00000,1,  100.0,    20.000, -9999.000,   6,1.0000
 77658,'C ',     0.000,     0.000,     0.900,     0.900,1.00000,     0,     8.000, 0.00000E+0, 2.10000E-1, 0.00000E+0, 0.00000E+0,1.00000,0,  100.0,     7.000, -9999.000,   8,1.0000
 77665,'S ',     0.000,     0.000,     0.000,     0.000,1.00000,     0,     5.000, 0.00000E+0, 2.10000E-1, 0.00000E+0, 0.00000E+0,1.00000,0,  100.0,     5.000, -9999.000,   5,1.0000
 77666,'H ',     4.500,     2.300,     2.300,     2.300,1.00000,     0,    25.000, 0.00000E+0, 2.10000E-1, 0.00000E+0, 0.00000E+0,1.00000,1,  100.0,    23.100, -9999.000,   6,1.0000
 77686,'H ',     4.700,     0.900,     0.900,     0.900,1.00000,     0,    10.000, 0.00000E+0, 2.10000E-1, 0.00000E+0, 0.00000E+0,1.00000,1,  100.0,     8.700, -9999.000,   6,1.0000
 77708,'C ',     0.000,     0.000,     1.500,     1.500,1.00000,     0,    17.000, 0.00000E+0, 2.10000E-1, 0.00000E+0, 0.00000E+0,1.00000,0,  100.0,    15.100, -9999.000,   8,1.0000
 77786,'H ',    19.700,     3.900,     3.900,     3.900,1.00000,     0,    43.000, 0.00000E+0, 2.10000E-1, 0.00000E+0, 0.00000E+0,1.00000,1,  100.0,    39.200, -9999.000,   6,1.0000
 77819,'O ',     0.000,     0.000,     0.400,     0.400,1.00000,     0,     5.600, 0.00000E+0, 2.10000E-1, 0.00000E+0, 0.00000E+0,1.00000,0,  100.0,     5.600, -9999.000,   9,1.0000
 77826,'H ',     0.000,     0.000,     1.500,     1.500,1.00000,     0,    16.000, 0.00000E+0, 2.10000E-1, 0.00000E+0, 0.00000E+0,1.00000,0,  100.0,    14.700, -9999.000,   6,1.0000
 77845,'S ',    41.800,     0.000,     0.000,     0.000,1.00000,     0,    47.500, 0.00000E+0, 2.10000E-1, 0.00000E+0, 0.00000E+0,1.00000,1,  100.0,    47.500, -9999.000,   5,1.0000
 77846,'H ',     2.000,     1.200,     1.200,     1.200,1.00000,     0,    13.000, 0.00000E+0, 2.10000E-1, 0.00000E+0, 0.00000E+0,1.00000,1,  100.0,    11.800, -9999.000,   6,1.0000
 77865,'S ',     0.000,     0.000,     0.000,     0.000,1.00000,     0,     5.000, 0.00000E+0, 2.10000E-1, 0.00000E+0, 0.00000E+0,1.00000,0,  100.0,     5.000, -9999.000,   5,1.0000
 77868,'C ',     3.700,     1.400,     1.400,     1.400,1.00000,     0,    16.000, 0.00000E+0, 2.10000E-1, 0.00000E+0, 0.00000E+0,1.00000,1,  100.0,    14.600, -9999.000,   8,1.0000
 77936,'H ',    11.800,     3.900,     3.900,     3.900,1.00000,     0,    43.000, 0.00000E+0, 2.10000E-1, 0.00000E+0, 0.00000E+0,1.00000,1,  100.0,    39.000, -9999.000,   6,1.0000
 78011,'1 ',     0.000,     0.000,    27.000,   -16.000,1.04000, 70201,    57.400, 5.00000E-3, 2.90000E-1, 0.00000E+0, 0.00000E+0,0.00000,0,   33.3,    53.000,    25.000,   1,1.0000
 78012,'2 ',    27.000,   -16.000,    27.000,   -16.000,1.04000, 70201,    57.400, 5.00000E-3, 2.90000E-1, 0.00000E+0, 0.00000E+0,0.00000,1,   33.3,    53.000,    25.000,   1,1.0000
 78013,'3 ',     0.000,     0.000,    27.000,   -16.000,1.04000, 70201,    57.400, 5.00000E-3, 2.90000E-1, 0.00000E+0, 0.00000E+0,0.00000,0,   33.3,    53.000,    25.000,   1,1.0000
 78021,'1 ',     0.000,     0.000,    10.000,    -7.000,1.04000,     0,    32.000, 2.70000E-3, 1.60000E-1, 0.00000E+0, 0.00000E+0,0.00000,0,  100.0,    30.000,    10.000,   1,1.0000
 78022,'2 ',     0.000,     0.000,    10.000,    -7.000,1.04000,     0,    32.000, 2.70000E-3, 1.60000E-1, 0.00000E+0, 0.00000E+0,0.00000,0,  100.0,    30.000,    10.000,   1,1.0000
 78023,'3 ',     0.000,     0.000,    10.000,    -7.000,1.04000,     0,    32.000, 2.70000E-3, 1.60000E-1, 0.00000E+0, 0.00000E+0,0.00000,0,  100.0,    30.000,    10.000,   1,1.0000
 78024,'4 ',    51.500,    21.000,    21.000,   -20.000,1.04000,     0,    60.000, 2.10000E-3, 1.60000E-1, 0.00000E+0, 0.00000E+0,0.00000,1,  100.0,    54.000,    20.000,   1,1.0000
 78031,'1 ',    19.800,    -5.000,    14.000,    -5.000,1.04000, 71030,    25.000, 3.00000E-3, 2.10000E-1, 0.00000E+0, 0.00000E+0,0.00000,1,   50.0,    21.000,    11.000,   1,1.0000
 78032,'2 ',    20.500,    -5.000,    14.000,    -5.000,1.04000, 71030,    25.000, 3.00000E-3, 2.10000E-1, 0.00000E+0, 0.00000E+0,0.00000,1,   50.0,    21.000,    11.000,   1,1.0000
 78041,'1 ',     0.000,     0.000,    30.000,   -15.000,1.04000, 71040,    61.000, 5.00000E-3, 3.10000E-1, 0.00000E+0, 0.00000E+0,0.00000,0,   50.0,    54.000,     0.000,   1,1.0000
 78042,'2 ',    41.200,     8.725,    30.000,   -15.000,1.04000, 71040,    61.000, 5.00000E-3, 3.10000E-1, 0.00000E+0, 0.00000E+0,0.00000,1,   50.0,    54.000,    25.000,   1,1.0000
 78051,'1 ',    29.800,   -10.585,    10.000,   -14.800,1.04000, 70180,    34.000, 2.70000E-3, 2.25000E-1, 0.00000E+0, 0.00000E+0,0.00000,1,   50.0,    35.000,    20.000,   1,1.0000
 78052,'2 ',    30.200,   -10.585,    10.000,   -14.800,1.04000, 70180,    34.000, 2.70000E-3, 2.25000E-1, 0.00000E+0, 0.00000E+0,0.00000,1,   50.0,    35.000,    20.000,   1,1.0000
 78061,'1 ',     0.000,     0.000,    13.000,   -12.000,1.04000, 71060,    28.000, 5.00000E-3, 1.98000E-1, 0.00000E+0, 0.00000E+0,0.00000,0,   50.0,    25.000,    10.000,   1,1.0000
 78062,'2 ',    11.800,    13.000,    13.000,   -12.000,1.04000, 71060,    28.000, 5.00000E-3, 1.98000E-1, 0.00000E+0, 0.00000E+0,0.00000,1,   50.0,    25.000,    10.000,   1,1.0000
 78071,'1 ',     0.000,     0.000,    21.000,   -28.000,1.04000, 70233,    72.000, 4.30000E-3, 1.62000E-1, 0.00000E+0, 0.00000E+0,0.00000,0,   33.3,    65.000,    35.000,   1,1.0000
 78072,'2 ',    37.900,   -28.000,    21.000,   -28.000,1.04000, 70233,    72.000, 4.30000E-3, 1.62000E-1, 0.00000E+0, 0.00000E+0,0.00000,1,   33.3,    65.000,    35.000,   1,1.0000
 78073,'3 ',     0.000,     0.000,    21.000,   -28.000,1.04000, 70233,    72.000, 4.30000E-3, 1.62000E-1, 0.00000E+0, 0.00000E+0,0.00000,0,   33.3,    65.000,    35.000,   1,1.0000
 78081,'1 ',    53.200,   -34.000,    24.000,   -34.000,1.04800, 72080,    60.000, 5.00000E-3, 1.80000E-1, 0.00000E+0, 0.00000E+0,0.00000,1,   80.3,    60.000,    35.000,   1,1.0000
 78082,'2 ',     0.000,     0.000,    24.000,   -34.000,1.04000, 72080,    60.000, 5.00000E-3, 1.80000E-1, 0.00000E+0, 0.00000E+0,0.00000,0,   80.3,    60.000,    35.000,   1,1.0000
 78083,'3 ',     0.000,     0.000,    24.000,   -34.000,1.04000, 72080,    60.000, 5.00000E-3, 1.80000E-1, 0.00000E+0, 0.00000E+0,0.00000,0,   80.3,    60.000,    35.000,   1,1.0000
 78084,'4 ',     0.000,     0.000,   100.000,   -50.000,1.04000, 72080,   207.000, 3.20000E-3, 1.50000E-1, 0.00000E+0, 0.00000E+0,0.00000,0,  100.0,   189.000,   120.000,   1,1.0000
 78091,'1 ',     0.000,     0.000,    25.000,   -27.000,1.04000, 72090,    78.000, 4.60000E-3, 2.00000E-1, 0.00000E+0, 0.00000E+0,0.00000,0,   33.3,    80.000,    50.000,   1,1.0000
 78092,'2 ',     0.000,     0.000,    25.000,   -27.000,1.04000, 72090,    78.000, 4.60000E-3, 2.00000E-1, 0.00000E+0, 0.00000E+0,0.00000,0,   33.3,    80.000,    50.000,   1,1.0000
 78093,'3 ',    64.900,   -27.000,    25.000,   -27.000,1.04000, 72090,    78.000, 4.60000E-3, 2.00000E-1, 0.00000E+0, 0.00000E+0,0.00000,1,   33.3,    80.000,    50.000,   1,1.0000
 78101,'1 ',     0.000,     0.000,    22.000,   -25.000,1.04500, 71100,    45.000, 5.20000E-3, 1.20000E-1, 0.00000E+0, 0.00000E+0,0.00000,0,  100.0,    34.000,    20.000,   1,1.0000
 78111,'1 ',    27.900,     0.640,    24.000,    -8.000,1.04000, 71110,    40.000, 3.40000E-3, 2.64000E-1, 0.00000E+0, 0.00000E+0,0.00000,1,   50.0,    29.000,    15.000,   1,1.0000
 78112,'2 ',    28.200,     0.640,    24.000,    -8.000,1.04000, 71110,    40.000, 3.40000E-3, 2.64000E-1, 0.00000E+0, 0.00000E+0,0.00000,1,   50.0,    29.000,    15.000,   1,1.0000
 78121,'1 ',     0.000,     0.000,    27.000,   -20.000,1.04000, 70268,    67.000, 5.20000E-3, 1.82000E-1, 0.00000E+0, 0.00000E+0,0.00000,0,   33.3,    70.000,    30.000,   1,1.0000
 78122,'2 ',    36.400,     2.728,    27.000,   -20.000,1.04000, 70268,    67.000, 5.20000E-3, 1.82000E-1, 0.00000E+0, 0.00000E+0,0.00000,1,   33.3,    70.000,    30.000,   1,1.0000
 78123,'3 ',    40.100,     2.728,    27.000,   -20.000,1.04000, 70268,    67.000, 5.20000E-3, 1.82000E-1, 0.00000E+0, 0.00000E+0,0.00000,1,   33.3,    70.000,    30.000,   1,1.0000
 78131,'1 ',     0.000,     0.000,    48.000,   -45.000,1.04000, 71130,    80.000, 2.80000E-3, 2.43000E-1, 0.00000E+0, 0.00000E+0,0.00000,0,   40.2,    71.000,    35.000,   1,1.0000
 78132,'2 ',     0.000,     0.000,    23.000,   -34.000,1.04000, 71130,    84.000, 3.00000E-3, 2.00000E-1, 0.00000E+0, 0.00000E+0,0.00000,0,   59.8,    72.000,    35.000,   1,1.0000
 78141,'1 ',    28.200,    15.529,    26.000,   -26.000,1.04500, 70254,    58.000, 8.10000E-3, 1.90000E-1, 0.00000E+0, 0.00000E+0,0.00000,1,   33.3,    60.000,    25.000,   1,1.0000
 78142,'2 ',     0.000,     0.000,    26.000,   -26.000,1.04000, 70254,    58.000, 8.10000E-3, 1.90000E-1, 0.00000E+0, 0.00000E+0,0.00000,0,   33.3,    60.000,    25.000,   1,1.0000
 78143,'3 ',    27.300,    15.529,    26.000,   -26.000,1.04000, 70254,    58.000, 8.10000E-3, 1.90000E-1, 0.00000E+0, 0.00000E+0,0.00000,1,   33.3,    60.000,    25.000,   1,1.0000
 78151,'1 ',     0.000,     0.000,    13.000,   -12.000,1.04000, 71150,    50.000, 4.90000E-3, 1.80000E-1, 0.00000E+0, 0.00000E+0,0.00000,0,   33.3,    44.000,    15.000,   1,1.0000
 78152,'2 ',     0.000,     0.000,    13.000,   -12.000,1.04000, 71150,    50.000, 4.90000E-3, 1.80000E-1, 0.00000E+0, 0.00000E+0,0.00000,0,   33.3,    44.000,    15.000,   1,1.0000
 78153,'3 ',     0.000,     0.000,    13.000,   -12.000,1.04000, 71150,    50.000, 4.90000E-3, 1.80000E-1, 0.00000E+0, 0.00000E+0,0.00000,0,   33.3,    44.000,    15.000,   1,1.0000
 78161,'1 ',     0.000,     0.000,    31.000,   -34.000,1.04000, 72160,    80.000, 8.10000E-3, 2.10000E-1, 0.00000E+0, 0.00000E+0,0.00000,0,   33.3,    80.000,    30.000,   1,1.0000
 78162,'2 ',    70.600,   -34.000,    31.000,   -34.000,1.04000, 72160,    80.000, 8.10000E-3, 2.10000E-1, 0.00000E+0, 0.00000E+0,0.00000,1,   33.3,    80.000,    30.000,   1,1.0000
 78163,'3 ',     0.000,     0.000,    31.000,   -34.000,1.04000, 72160,    80.000, 8.10000E-3, 2.10000E-1, 0.00000E+0, 0.00000E+0,0.00000,0,   33.3,    80.000,    30.000,   1,1.0000
 78171,'1 ',     0.000,     0.000,    44.000,   -46.000,1.04000, 72170,   100.000, 5.00000E-3, 2.40000E-1, 0.00000E+0, 0.00000E+0,0.00000,0,   33.4,   112.000,    73.000,   1,1.0000
 78172,'2 ',     0.000,     0.000,    44.000,   -46.000,1.04000, 72170,   100.000, 5.00000E-3, 2.40000E-1, 0.00000E+0, 0.00000E+0,0.00000,0,   33.3,   112.000,    73.000,   1,1.0000
 78173,'3 ',     0.000,     0.000,    44.000,   -46.000,1.04000, 72170,   100.000, 5.00000E-3, 2.40000E-1, 0.00000E+0, 0.00000E+0,0.00000,0,   33.3,   112.000,    73.000,   1,1.0000
 78181,'1 ',     0.000,     0.000,     3.000,    -4.000,1.03000, 76180,    13.000, 5.00000E-3, 2.30000E-1, 0.00000E+0, 0.00000E+0,0.00000,0,   50.0,    12.000,     5.000,   1,1.0000
 78182,'2 ',     0.000,     0.000,     3.000,    -4.000,1.03000, 76180,    13.000, 5.00000E-3, 2.30000E-1, 0.00000E+0, 0.00000E+0,0.00000,0,   50.0,    12.000,     5.000,   1,1.0000
 78191,'1 ',    36.200,   -10.000,    10.000,   -10.000,1.04000, 72190,    62.000, 5.00000E-3, 2.00000E-1, 0.00000E+0, 0.00000E+0,0.00000,1,   33.3,    62.000,    25.000,   1,1.0000
 78192,'2 ',    35.300,   -10.000,    10.000,   -10.000,1.04000, 72190,    62.000, 5.00000E-3, 2.00000E-1, 0.00000E+0, 0.00000E+0,0.00000,1,   33.4,    62.000,    25.000,   1,1.0000
 78193,'3 ',     0.000,     0.000,    10.000,   -10.000,1.04000, 72190,    62.000, 5.00000E-3, 2.00000E-1, 0.00000E+0, 0.00000E+0,0.00000,0,   33.3,    62.000,    25.000,   1,1.0000
 78201,'1 ',    27.400,    10.000,    10.000,   -15.000,1.04000, 76200,    36.100, 6.00000E-3, 2.90000E-1, 0.00000E+0, 0.00000E+0,0.00000,1,   33.3,    39.000,    20.000,   1,1.0000
 78202,'2 ',     0.000,     0.000,    10.000,   -15.000,1.04000, 76200,    36.100, 6.00000E-3, 2.90000E-1, 0.00000E+0, 0.00000E+0,0.00000,0,   33.3,    39.000,    20.000,   1,1.0000
 78203,'3 ',    28.000,    10.000,    10.000,   -15.000,1.04000, 76200,    36.100, 6.00000E-3, 2.90000E-1, 0.00000E+0, 0.00000E+0,0.00000,1,   33.3,    39.000,    20.000,   1,1.0000
 78211,'1 ',     0.000,     0.000,    38.000,   -35.000,1.04000, 70246,    80.000, 5.00000E-3, 2.10000E-1, 0.00000E+0, 0.00000E+0,0.00000,0,   50.0,    70.000,    40.000,   1,1.0000
 78212,'2 ',     0.000,     0.000,    38.000,   -35.000,1.04000, 70246,    80.000, 5.00000E-3, 2.10000E-1, 0.00000E+0, 0.00000E+0,0.00000,0,   50.0,    70.000,    40.000,   1,1.0000
 78221,'1 ',     0.000,     0.000,   150.000,  -100.000,1.04000, 70451,   350.000, 5.00000E-3, 2.50000E-1, 0.00000E+0, 0.00000E+0,0.00000,0,   50.0,   315.000,   150.000,   1,1.0000
 78222,'2 ',   281.200,  -100.000,   150.000,  -100.000,1.04000, 70451,   350.000, 5.00000E-3, 2.50000E-1, 0.00000E+0, 0.00000E+0,0.00000,1,   50.0,   315.000,   150.000,   1,1.0000
 78231,'1 ',    19.800,     1.813,    12.000,   -14.000,1.03000, 76230,    24.000, 5.00000E-3, 2.50000E-1, 0.00000E+0, 0.00000E+0,0.00000,1,  100.0,    22.000,    10.000,   1,1.0000
 78240,'1 ',     0.000,     0.000,     4.500,    -3.000,1.00000, 70643,     8.800, 5.00000E-3, 1.50000E-1, 0.00000E+0, 0.00000E+0,0.00000,0,   30.5,     8.000,     3.000,   1,1.0000
 78240,'2 ',     0.000,     0.000,     4.500,    -3.000,1.00000, 70643,     8.800, 5.00000E-3, 1.50000E-1, 0.00000E+0, 0.00000E+0,0.00000,0,   30.5,     8.000,     3.000,   1,1.0000
 78243,'3 ',     0.000,     0.000,    10.000,    -5.000,1.00000, 70643,    27.500, 5.40000E-3, 1.50000E-1, 0.00000E+0, 0.00000E+0,0.00000,0,   69.5,    25.000,    15.000,   1,1.0000
 78251,'1 ',     5.300,    15.000,    15.000,   -10.000,1.03000, 76250,    40.000, 5.00000E-3, 1.49000E-1, 0.00000E+0, 0.00000E+0,0.00000,1,  100.0,    40.000,     0.000,   1,1.0000
 78261,'1 ',    88.700,   -46.000,    59.000,   -46.000,1.03600, 70484,   137.000, 5.00000E-3, 2.50000E-1, 0.00000E+0, 0.00000E+0,0.00000,1,   50.0,   120.000,    55.000,   1,1.0000
 78262,'2 ',     0.000,     0.000,    59.000,   -46.000,1.03600, 70484,   137.000, 5.00000E-3, 2.50000E-1, 0.00000E+0, 0.00000E+0,0.00000,0,   50.0,   120.000,    55.000,   1,1.0000
 78271,'1 ',    90.900,    44.000,    44.000,   -46.000,1.04000,     0,   100.000, 5.00000E-3, 2.50000E-1, 0.00000E+0, 0.00000E+0,0.00000,1,  100.0,    98.000,    50.000,   1,1.0000
 78272,'2 ',     0.000,     0.000,    44.000,   -46.000,1.04000,     0,   100.000, 5.00000E-3, 2.50000E-1, 0.00000E+0, 0.00000E+0,0.00000,0,  100.0,    98.000,    50.000,   1,1.0000
 78995,'5 ',    12.804,     2.653,     6.000,    -3.000,1.02000, 76992,    20.000, 5.40000E-3, 2.10000E-1, 0.00000E+0, 0.00000E+0,1.00000,1,   31.2,    16.000,    10.000,   1,1.0000
 78996,'6 ',    25.852,     5.850,    13.000,    -6.000,1.02000, 76992,    36.300, 5.40000E-3, 2.10000E-1, 0.00000E+0, 0.00000E+0,1.00000,1,   68.8,    32.300,    10.000,   1,1.0000
 79721,'1 ',     0.000,     0.000,    90.000,   -20.000,1.04000, 70218,   156.000, 4.00000E-3, 1.79000E-1, 0.00000E+0, 0.00000E+0,0.00000,0,   16.6,   118.200,    36.200,   1,1.0000
 79722,'2 ',     0.000,     0.000,    90.000,   -20.000,1.04000, 70218,   156.000, 4.00000E-3, 1.79000E-1, 0.00000E+0, 0.00000E+0,0.00000,0,   16.6,   118.200,    36.200,   1,1.0000
 79723,'3 ',     0.000,     0.000,    90.000,   -20.000,1.04000, 70218,   156.000, 4.00000E-3, 1.50000E-1, 0.00000E+0, 0.00000E+0,0.00000,0,   16.6,   118.700,    36.700,   1,1.0000
 79724,'4 ',     0.000,     0.000,    90.000,   -20.000,1.04000, 70218,   156.000, 4.00000E-3, 1.50000E-1, 0.00000E+0, 0.00000E+0,0.00000,0,   16.6,   118.700,    36.700,   1,1.0000
 79725,'5 ',     0.000,     0.000,    90.000,   -20.000,1.04000, 70218,   156.000, 4.00000E-3, 1.79000E-1, 0.00000E+0, 0.00000E+0,0.00000,0,   16.6,   118.200,    36.200,   1,1.0000
 79726,'6 ',     0.000,     0.000,    90.000,   -20.000,1.04000, 70218,   156.000, 4.00000E-3, 1.79000E-1, 0.00000E+0, 0.00000E+0,0.00000,0,   16.6,   118.200,    36.200,   1,1.0000
 79733,'3 ',     0.000,     0.000,    50.000,   -45.000,1.03000, 70113,    98.000, 4.00000E-3, 1.40000E-1, 0.00000E+0, 0.00000E+0,0.00000,0,  100.0,    82.500,     4.000,   1,1.0000
 79734,'4 ',     0.000,     0.000,    50.000,   -45.000,1.03000, 70613,    98.000, 4.00000E-3, 1.40000E-1, 0.00000E+0, 0.00000E+0,0.00000,0,   33.3,    82.500,     4.000,   1,1.0000
 79761,'1 ',     0.000,     0.000,   154.000,   -72.000,1.03000, 74761,   294.000, 2.00000E-3, 2.60000E-1, 0.00000E+0, 0.00000E+0,0.00000,0,  100.0,   236.600,    92.200,   1,1.0000
 79762,'2 ',     0.000,     0.000,   154.000,   -72.000,1.03000, 74762,   294.000, 2.00000E-3, 2.60000E-1, 0.00000E+0, 0.00000E+0,0.00000,0,  100.0,   236.600,    92.200,   1,1.0000
 79763,'3 ',     0.000,     0.000,   154.000,   -72.000,1.03000, 74763,   294.000, 2.00000E-3, 2.60000E-1, 0.00000E+0, 0.00000E+0,0.00000,0,  100.0,   236.600,    92.200,   1,1.0000
 79764,'4 ',     0.000,     0.000,   154.000,   -72.000,1.03000, 74764,   294.000, 2.00000E-3, 2.60000E-1, 0.00000E+0, 0.00000E+0,0.00000,0,  100.0,   236.600,    92.200,   1,1.0000
 79771,'1 ',   294.800,    72.246,   185.000,   -95.000,1.04500, 71771,   353.000, 5.00000E-3, 3.22000E-1, 0.00000E+0, 0.00000E+0,0.00000,1,  100.0,   300.000,   109.000,   1,1.0000
 79772,'2 ',   274.104,    95.644,   185.000,   -95.000,1.03000, 74772,   353.000, 5.00000E-3, 3.22000E-1, 0.00000E+0, 0.00000E+0,0.00000,1,  100.0,   300.000,   109.000,   1,1.0000
 79773,'3 ',   298.800,   -95.000,   185.000,   -95.000,1.03000, 74773,   353.000, 5.00000E-3, 3.22000E-1, 0.00000E+0, 0.00000E+0,0.00000,1,  100.0,   300.000,   109.000,   1,1.0000
 79774,'4 ',   297.200,   -95.000,   185.000,   -95.000,1.03000, 74774,   353.000, 5.00000E-3, 3.22000E-1, 0.00000E+0, 0.00000E+0,0.00000,1,  100.0,   300.000,   109.000,   1,1.0000
 79781,'1 ',   279.600,   -90.000,   180.000,   -90.000,1.04000, 70460,   362.000, 5.00000E-3, 3.35000E-1, 0.00000E+0, 0.00000E+0,0.00000,1,   56.5,   288.000,   101.000,   1,1.0000
 79782,'2 ',     0.000,     0.000,   180.000,   -90.000,1.04000, 70460,   362.000, 5.00000E-3, 3.35000E-1, 0.00000E+0, 0.00000E+0,1.00000,0,   43.5,   288.000,   101.000,   1,1.0000
 79791,'1 ',   320.400,    24.462,   150.000,  -124.000,1.04000, 72790,   394.000, 5.00000E-3, 1.84000E-1, 0.00000E+0, 0.00000E+0,0.00000,1,   33.3,   330.000,   195.000,   1,1.0000
 79792,'2 ',     0.000,     0.000,   150.000,  -124.000,1.04000, 72790,   394.000, 5.00000E-3, 1.84000E-1, 0.00000E+0, 0.00000E+0,0.00000,0,   33.3,   330.000,   195.000,   1,1.0000
...